@<TRIPOS>MOLECULE
    UNL
   33    34     0     0     0
SMALL
USER_CHARGES


@<TRIPOS>ATOM
      1 C           2.2900    0.2850   -0.0450 c3         1 UNL      0.021455
      2 C0         -0.0890    2.6850    0.1100 cc         1 UNL      0.004968
      3 C1         -4.3870   -2.7660   -0.0620 c3         1 UNL      0.077507
      4 C2          4.4510   -0.8130   -0.2930 za         1 UNL      0.216383
      5 C3          5.7410   -1.3390    0.2820 c3         1 UNL      0.014822
      6 C4          1.4460    0.8980    1.0740 c3         1 UNL     -0.008217
      7 C5         -1.0690    0.6560    0.2610 ca         1 UNL      0.006306
      8 C6         -1.4290   -0.6790    0.4580 ca         1 UNL     -0.010299
      9 C7         -3.2790    1.1240   -0.5960 ca         1 UNL     -0.034322
     10 C8         -2.0010    1.5650   -0.2710 ca         1 UNL      0.045903
     11 C9          0.1560    1.4240    0.5000 cd         1 UNL     -0.020757
     12 C10        -2.7000   -1.0990    0.1200 ca         1 UNL      0.119121
     13 C11        -3.6180   -0.1990   -0.4160 ca         1 UNL     -0.017876
     14 N           3.5440   -0.2260    0.5130 ns         1 UNL     -0.356012
     15 N0         -1.3720    2.7890   -0.3530 na         1 UNL     -0.360885
     16 O          -3.0570   -2.3980    0.3100 os         1 UNL     -0.496743
     17 O0          4.2290   -0.9180   -1.4800 zb         1 UNL     -0.275468
     18 H           1.7390   -0.5330   -0.5100 h1         1 UNL      0.049455
     19 H0          2.5090    1.0470   -0.7930 h1         1 UNL      0.049455
     20 H1          0.6200    3.4980    0.1590 h4         1 UNL      0.081873
     21 H2         -4.5400   -3.8260    0.1410 h1         1 UNL      0.066861
     22 H3         -5.1010   -2.1780    0.5150 h1         1 UNL      0.066861
     23 H4         -4.5330   -2.5750   -1.1250 h1         1 UNL      0.066861
     24 H5          5.6080   -2.3780    0.5840 hc         1 UNL      0.033023
     25 H6          6.5260   -1.2780   -0.4720 hc         1 UNL      0.033023
     26 H7          6.0230   -0.7420    1.1490 hc         1 UNL      0.033023
     27 H8          1.2270    0.1360    1.8220 hc         1 UNL      0.033493
     28 H9          1.9970    1.7160    1.5390 hc         1 UNL      0.033493
     29 H10        -0.7190   -1.3780    0.8730 ha         1 UNL      0.066920
     30 H11        -3.9990    1.8130   -1.0120 ha         1 UNL      0.064629
     31 H12        -4.6120   -0.5360   -0.6700 ha         1 UNL      0.066268
     32 H13         3.7220   -0.1420    1.4630 hn         1 UNL      0.162940
     33 H14        -1.7800    3.6040   -0.6860 hn         1 UNL      0.165937
@<TRIPOS>BOND
     1    1    6 1
     2    1   14 1
     3    1   18 1
     4    1   19 1
     5    2   11 ar
     6    2   15 ar
     7    2   20 1
     8    3   16 1
     9    3   21 1
    10    3   22 1
    11    3   23 1
    12    4    5 1
    13    4   14 am
    14    4   17 2
    15    5   24 1
    16    5   25 1
    17    5   26 1
    18    6   11 1
    19    6   27 1
    20    6   28 1
    21    7    8 ar
    22    7   10 ar
    23    7   11 ar
    24    8   12 ar
    25    8   29 1
    26    9   10 ar
    27    9   13 ar
    28    9   30 1
    29   10   15 ar
    30   12   13 ar
    31   12   16 1
    32   13   31 1
    33   14   32 1
    34   15   33 1
